output/ny_only_package_b/alternatives/replacement_DGHIJK/bounded_audit_bus.csv
source_bus,bus_type,vm_pu,vmin_pu,vmax_pu,p_mismatch_mw,q_mismatch_mvar,voltage_below_min_pu,voltage_above_max_pu,violated,invalid_voltage_bounds
37,2,1.08833686105752,0.9,1.1,17.855045897226,-2.131507932972,0,0,1,0
38,2,1.10947731817555,0.9,1.1,2.1596268152781,-1.33329885040433,0,0.00947731817555209,1,0
40,1,1.04290291835802,0.9,1.1,1.39451791427427,-0.0150654272715415,0,0,1,0
41,2,1.06117093516236,0.9,1.1,2.19948099322086,0.0127518864754279,0,0,1,0
42,2,1.09866657662472,0.9,1.1,-5.57611083265044,-2.72456282279165,0,0,1,0
43,2,0.93498788004301,0.9,1.1,17.1645967576746,20.2689652232942,0,0,1,0
44,2,0.908697763682842,0.9,1.1,5.60783459350987,4.37506361118179,0,0,1,0
45,2,0.918858469355487,0.9,1.1,2.83478228002564,0.517743152766251,0,0,1,0
50,2,0.890522729826548,0.9,1.1,-44.3592527868745,65.9619903596824,0.00947727017345212,0,1,0
51,2,0.894768606162771,0.9,1.1,-1.01746013932757,6.66275347083922,0.00523139383722893,0,1,0
52,1,0.996438906825972,0.9,1.1,-5.60640619360169,12.1630295158209,0,0,1,0
53,2,1.07937865485065,0.9,1.1,-0.934452251473203,4.35527890418416,0,0,1,0
54,2,1.10947666080754,0.9,1.1,-8.4651530538963,1.05816036035793,0,0.00947666080753673,1,0
55,1,1.10947695881729,0.9,1.1,-0.443995922015256,1.34531827345795,0,0.0094769588172896,1,0
56,2,1.10144897508097,0.9,1.1,0.961215017038114,2.41974035070905,0,0.00144897508097386,1,0
57,2,1.10423799479205,0.9,1.1,1.84340908498604,0.602563900154493,0,0.00423799479204701,1,0
58,1,1.08916793723253,0.9,1.1,1.02058260947862,0.417490136961784,0,0,1,0
59,1,1.09316992519034,0.9,1.1,0.921139499841161,-0.0680010586154967,0,0,1,0
60,2,1.10947716751043,0.9,1.1,-0.412429713561195,0.134625493301954,0,0.00947716751042949,1,0
61,2,1.10946634988668,0.9,1.1,-0.213578295965306,-0.442824395154349,0,0.00946634988668427,1,0
62,1,1.06232606261735,0.9,1.1,-2.16025165146183,1.82730053722213,0,0,1,0
63,1,0.939821542979516,0.9,1.1,-1.53052961195548,3.34765873868544,0,0,1,0
64,1,0.970996787582332,0.9,1.1,-0.552427903680686,1.04963667750212,0,0,1,0
65,2,1.06339448802912,0.9,1.1,-0.779356626604084,0.0145419017054564,0,0,1,0
66,1,0.940539050011936,0.9,1.1,-0.00337506839135873,0.40012679657229,0,0,1,0
67,1,0.903518997477051,0.9,1.1,0.232079427701241,2.13065099881966,0,0,1,0
68,2,0.890523308299535,0.9,1.1,11.9135470513268,-1.53253169152015,0.00947669170046483,0,1,0
69,1,0.982730374271537,0.9,1.1,1.71506922497932,0.896490028558796,0,0,1,0
70,1,0.916298905768887,0.9,1.1,-0.109868213543698,0.063752841998763,0,0,1,0
71,2,0.92107905719661,0.9,1.1,2.05503088651667,-0.0220147373429356,0,0,1,0
72,2,0.920138081989933,0.9,1.1,2.82385579901975,-0.762243302362549,0,0,1,0
1228,1,1.02424725843987,0.9,1.1,2.93169432509654,-0.149876095589945,0,0,1,0
1222,1,1.06840183987339,0.9,1.1,3.0092118483921,-0.43564120203146,0,0,1,0
1567,1,0.936874637641894,0.9,1.1,1.97575082263521,-0.132290438384815,0,0,1,0
20004,1,0.908473813998032,0.9,1.1,1.11993106217137,-0.0536907488273175,0,0,1,0
20009,1,1.10235761942756,0.9,1.1,0.20681044802074,-0.0827924315877089,0,0.0023576194275623,1,0
20010,1,0.910824062170263,0.9,1.1,0.213630843396258,-0.0117382907147481,0,0,1,0
20017,2,1.08530049410543,0.9,1.1,-2.29512921868195,-0.098667966179228,0,0,1,0
20018,2,1.07787777449951,0.9,1.1,-4.71740461090587,0.110514574016136,0,0,1,0
20019,2,1.06274862534255,0.9,1.1,-1.2513397783041,-1.5968773806777,0,0,1,0
20026,2,1.07974624188357,0.9,1.1,-3.04605464537644,-0.340041766797498,0,0,1,0
20035,2,0.944401592453389,0.9,1.1,-0.263336350243426,-0.39905104353052,0,0,1,0
20036,1,0.944062583014366,0.9,1.1,0.352706658621592,0.0376360707406549,0,0,1,0
20060,2,0.976974877288531,0.9,1.1,-0.142897807152693,-0.21158899007477,0,0,1,0
20079,2,1.08213954179925,0.9,1.1,-3.61877880317314,0.358240963772772,0,0,1,0
20190,1,0.925503945980236,0.9,1.1,0.490782792568311,-0.0031611902072487,0,0,1,0
20191,1,0.926297640861588,0.9,1.1,0.356026147981126,-0.00867721672022856,0,0,1,0
20192,1,0.922137498539076,0.9,1.1,0.617484140918812,-0.0189016073722417,0,0,1,0
20193,1,0.908197095783326,0.9,1.1,0.901975958855537,-0.0519409663291101,0,0,1,0
20449,1,0.909231417204455,0.9,1.1,0.682627974351469,-0.0367809933430122,0,0,1,0
20450,1,0.911477860969176,0.9,1.1,0.638560190595065,-0.0351831247545439,0,0,1,0
20485,1,1.00170367272966,0.9,1.1,-0.0655981398867027,-0.103682987434289,0,0,1,0
20500,1,0.966770513862163,0.9,1.1,0.0345250088087692,-0.000355419348598539,0,0,1,0
20512,1,1.07159860094991,0.9,1.1,0.123900762592019,-0.109968356657938,0,0,1,0
20514,1,1.05624993879517,0.9,1.1,0.0676841107994068,0.0142829033944457,0,0,1,0
20515,1,0.928362033385826,0.9,1.1,0.252768480190486,-0.000504094209737363,0,0,1,0
20516,1,0.923590505388915,0.9,1.1,0.26528692820634,-0.0152375737587257,0,0,1,0
20518,1,0.928758813752584,0.9,1.1,0.216964622560829,0.00742298197308894,0,0,1,0
20519,1,0.919063517139363,0.9,1.1,0.265658078110771,-0.013384661191417,0,0,1,0
20520,1,1.07547595270994,0.9,1.1,0.038784106396891,0.04032436866526,0,0,1,0
20524,1,1.09479000465412,0.9,1.1,0.16492251780528,0.00703732748787295,0,0,1,0
20525,1,1.09633345620969,0.9,1.1,0.0601640293936292,0.00263637623080567,0,0,1,0
20526,2,1.03532704501028,0.9,1.1,-0.333998974283773,-0.128205510676468,0,0,1,0
20527,1,1.05627524056943,0.9,1.1,0.0627510354485032,0.004368065721903,0,0,1,0
20528,1,1.09002508628522,0.9,1.1,0.137170411065199,0.0217414156030091,0,0,1,0
20529,1,1.10412883155099,0.9,1.1,0.0583810772017583,-0.0110409058592033,0,0.00412883155099464,1,0
20530,1,1.10306301219117,0.9,1.1,0.00711733430858077,-0.0243576963766131,0,0.00306301219117011,1,0
20531,1,1.09645740989828,0.9,1.1,0.131983748931901,0.00883605580180996,0,0,1,0
20532,1,1.09081470799624,0.9,1.1,0.131695604676178,0.0117003357284526,0,0,1,0
20533,1,0.995798546884364,0.9,1.1,0.0871469753345497,-0.00145168716169986,0,0,1,0
20534,1,1.04711396234658,0.9,1.1,0.0733649621438719,0.0094263386996305,0,0,1,0
20535,2,1.10947733616022,0.9,1.1,-4.43858962724164,-1.49389799818638,0,0.0094773361602245,1,0
20536,1,1.10726127492456,0.9,1.1,0.397645484854984,-0.0303493724069931,0,0.00726127492455819,1,0
20537,1,1.08963834576287,0.9,1.1,0.266828222354434,0.0287088660538372,0,0,1,0
20538,1,1.09124884582124,0.9,1.1,0.133303817599536,0.0106189167555608,0,0,1,0
20539,1,1.10043037168867,0.9,1.1,0.0847598048372866,-0.000326171518108943,0,0.000430371688669773,1,0
20540,1,1.10415089740933,0.9,1.1,0.00625176806066996,-0.0122348874575697,0,0.00415089740932784,1,0
20541,1,1.10931146373479,0.9,1.1,0.0804032833120925,0.0147665782674216,0,0.00931146373478686,1,0
20542,1,1.09434643882059,0.9,1.1,0.0660689923960973,0.00157001493890432,0,0,1,0
20543,1,1.0940813577818,0.9,1.1,0.0656830058856706,0.000817772247785169,0,0,1,0
20544,1,1.10856437001788,0.9,1.1,0.132641216790102,-0.00358539408646013,0,0.0085643700178808,1,0
20545,1,1.10765696979247,0.9,1.1,0.0699551927296085,0.0032730691388644,0,0.00765696979246644,1,0
20546,2,1.10848128207603,0.9,1.1,-0.532457231118187,0.260144486887398,0,0.00848128207602605,1,0
20547,1,1.09763830588858,0.9,1.1,-0.0268763114506743,0.236632443604882,0,0,1,0
20548,1,1.00499775637362,0.9,1.1,0.144763836309858,-0.00138813605978227,0,0,1,0
20549,1,1.02853381511525,0.9,1.1,0.331842297078584,0.053675318431487,0,0,1,0
20550,1,1.07293326479789,0.9,1.1,0.831439111154225,0.113959953184023,0,0,1,0
20551,1,1.0937558713452,0.9,1.1,0.116869931371896,0.0042475999629199,0,0,1,0
20552,2,1.06902705737051,0.9,1.1,-0.0499507556277194,-1.3770385035024,0,0,1,0
20553,1,1.08074058699942,0.9,1.1,0.588740203058279,-0.0569143896716834,0,0,1,0
20554,2,1.06921570510965,0.9,1.1,-1.25164341661531,-1.39025622258177,0,0,1,0
20555,1,1.07205373124249,0.9,1.1,0.563412523193982,-0.0253466103936173,0,0,1,0
20556,2,1.08460835121987,0.9,1.1,-2.00608749395519,-0.568659328772583,0,0,1,0
20557,2,1.07970958032966,0.9,1.1,5.1398588654863,0.591402127637963,0,0,1,0
20558,1,1.06187567914657,0.9,1.1,0.0553795239148256,0.00297551063495952,0,0,1,0
20559,1,1.05350117492384,0.9,1.1,0.27430871606844,0.016356245440341,0,0,1,0
20560,1,1.09217040744225,0.9,1.1,-0.121828396454537,0.490411765101693,0,0,1,0
20561,1,1.07350487528154,0.9,1.1,0.198211420751083,0.0700263082737393,0,0,1,0
20562,2,0.890522667179075,0.9,1.1,0.141491246236427,0.878464174553017,0.00947733282092489,0,1,0
20564,2,1.05786183382116,0.9,1.1,-0.3792615835237,-0.162279249547009,0,0,1,0
20565,2,1.10221373483333,0.9,1.1,-1.14559205061541,0.452811076855504,0,0.00221373483332932,1,0
20567,1,1.08693936646704,0.9,1.1,0.209705745814695,0.19572699232394,0,0,1,0
20568,1,1.05460556419509,0.9,1.1,0.104965403881128,0.0253260100259188,0,0,1,0
20569,2,1.05917067511779,0.9,1.1,-1.33877907499945,-0.608198883809692,0,0,1,0
20570,2,1.04287494936813,0.9,1.1,-0.649014743175883,-0.149876900914247,0,0,1,0
20571,2,1.10946801288347,0.9,1.1,-3.17175436523235,-1.53094067145119,0,0.00946801288347032,1,0
20572,1,1.07495741975124,0.9,1.1,0.224192638776518,0.0471947203337084,0,0,1,0
20577,2,1.06257295189046,0.9,1.1,-0.365775204963484,-0.233067847930202,0,0,1,0
20578,1,1.0619468127848,0.9,1.1,0.114552046978408,0.00666552393525574,0,0,1,0
20580,1,1.10763642831,0.9,1.1,-0.640948982231237,-0.040158444387151,0,0.00763642830999789,1,0
20581,1,1.06960571699193,0.9,1.1,0.146498686049849,0.0217738993195014,0,0,1,0
20582,1,1.07223540040115,0.9,1.1,0.125702485961344,0.0141300702192343,0,0,1,0
20583,1,1.0743699580307,0.9,1.1,0.107144521167191,0.009193104519295,0,0,1,0
20584,1,1.07499222601187,0.9,1.1,0.178226007800976,0.0182004671403252,0,0,1,0
20585,1,1.0746573591885,0.9,1.1,0.0965613433010901,0.0138045489361187,0,0,1,0
20586,1,1.0703723247698,0.9,1.1,0.0938532548729558,0.0154718164057863,0,0,1,0
20587,1,1.07157853162004,0.9,1.1,-0.00792742723215412,-0.0609875786581719,0,0,1,0
20588,1,1.07492094985458,0.9,1.1,0.18168326447589,0.180425231611185,0,0,1,0
20589,2,1.1094773356524,0.9,1.1,-4.34409444070968,-0.870484165109474,0,0.00947733565240072,1,0
20590,1,1.10726430096759,0.9,1.1,-0.0568709135291408,0.0289984367956194,0,0.00726430096759167,1,0
20591,1,1.06024762769487,0.9,1.1,0.371430795857613,0.048514265519875,0,0,1,0
20592,1,1.06946436012443,0.9,1.1,0.136994719647923,0.0286900109655992,0,0,1,0
20593,1,1.09515420423496,0.9,1.1,-0.252218167058144,0.912880405869005,0,0,1,0
20594,1,1.09529010495378,0.9,1.1,-0.108843040161737,1.16801492867915,0,0,1,0
20595,2,1.08416027032657,0.9,1.1,-3.22448366999387,1.10425562886792,0,0,1,0
20596,1,1.07886957798753,0.9,1.1,3.85611895567092,0.138100285341647,0,0,1,0
20597,1,1.08436686532696,0.9,1.1,4.75356083354404,0.159777529025273,0,0,1,0
20598,1,1.06927410651568,0.9,1.1,0.206994445885201,0.0849256502695309,0,0,1,0
20599,1,1.07888697009643,0.9,1.1,2.08077450063001,0.0764043378987722,0,0,1,0
20600,1,1.0816154461671,0.9,1.1,4.14049031705588,0.0923159010167485,0,0,1,0
20601,1,1.0827884351142,0.9,1.1,4.12176209655468,0.0851548524301471,0,0,1,0
20602,1,1.06807279248861,0.9,1.1,0.0555221237088874,0.00297352738645694,0,0,1,0
20603,1,1.09001067274525,0.9,1.1,0.527482168717164,0.0476608498910513,0,0,1,0
20604,1,1.09854995778943,0.9,1.1,0.436445584929537,0.0862077086683205,0,0,1,0
20605,1,1.08270033509038,0.9,1.1,0.151380663110709,0.00265195298008031,0,0,1,0
20606,1,1.06618109410968,0.9,1.1,0.180861301882025,0.0345403050620155,0,0,1,0
20607,1,1.08448501591422,0.9,1.1,0.120347923947579,0.035749485066662,0,0,1,0
20608,1,1.07191931054981,0.9,1.1,1.14112240129955,-0.188140719140861,0,0,1,0
20609,2,1.10947733490091,0.9,1.1,-2.53961800977578,0.948757068215698,0,0.00947733490090519,1,0
20610,1,1.08967593525588,0.9,1.1,0.0631440508214656,0.00112481764154397,0,0,1,0
20611,1,1.08982877290055,0.9,1.1,0.288376730630347,0.0115792746561094,0,0,1,0
20612,1,1.08998727801571,0.9,1.1,0.0632613727544866,0.00112004497838623,0,0,1,0
20613,1,1.05927299390711,0.9,1.1,0.114246556271326,0.00642746226341417,0,0,1,0
20614,2,1.06469288943614,0.9,1.1,-0.924852518566269,-0.402208957946232,0,0,1,0
20615,1,1.05068138541952,0.9,1.1,0.175461409869239,0.0148612581582899,0,0,1,0
20616,1,1.05238326308912,0.9,1.1,0.112503770095282,0.0103207682655204,0,0,1,0
20617,1,1.05013102780946,0.9,1.1,0.113134161321682,0.00645250692677887,0,0,1,0
20618,1,1.06216752205575,0.9,1.1,0.108464414681,0.00773335146160986,0,0,1,0
20619,2,1.071397087454,0.9,1.1,-0.120271949610798,-0.0434541089560785,0,0,1,0
20620,1,1.05643388872711,0.9,1.1,0.251447853729118,0.0494632397217226,0,0,1,0
20621,1,1.03654847127,0.9,1.1,0.162865604381395,0.104367230132291,0,0,1,0
20622,1,1.04620569096115,0.9,1.1,0.241387165486941,-0.043625564051343,0,0,1,0
20623,2,1.03347144231195,0.9,1.1,-0.787585750565228,0.0795769952020358,0,0,1,0
20624,1,1.04449490035865,0.9,1.1,0.242235312114424,0.103530849240646,0,0,1,0
20625,1,1.06068557996061,0.9,1.1,0.101576128606007,0.0209632702573348,0,0,1,0
20626,1,1.05609952093232,0.9,1.1,0.213057347030563,0.123821403159163,0,0,1,0
20627,1,1.03653183778162,0.9,1.1,0.0568648707340804,0.00251864987419539,0,0,1,0
20628,1,1.0827657885061,0.9,1.1,3.36115684510401,0.266356893067243,0,0,1,0
20629,1,1.08601639557327,0.9,1.1,3.38279775220394,0.13681229851652,0,0,1,0
20638,2,1.06226377407776,0.9,1.1,-0.305998822358053,-0.221302649093316,0,0,1,0
20639,1,1.02551970985468,0.9,1.1,0.128886757446207,0.0133981091617046,0,0,1,0
20640,1,0.987858661796501,0.9,1.1,0.0951056741085274,9.92919818225066e-05,0,0,1,0
20641,1,1.05647729142844,0.9,1.1,0.0931188157409437,0.010981210424057,0,0,1,0
20642,1,1.09524846283978,0.9,1.1,0.132102248870744,0.0087865147529155,0,0,1,0
20643,1,1.09379958528878,0.9,1.1,0.13317301114451,0.00799654354770862,0,0,1,0
20644,1,1.10673011118268,0.9,1.1,0.0538136080673554,0.0775995803032409,0,0.00673011118267586,1,0
20645,1,1.08926184457723,0.9,1.1,0.202621674339934,0.0101354364300747,0,0,1,0
20646,1,1.0913844183024,0.9,1.1,0.13534341139286,0.00973455118806546,0,0,1,0
20647,1,1.08652457834655,0.9,1.1,0.240959772060673,0.0468121184252705,0,0,1,0
20648,1,1.09139852048937,0.9,1.1,0.132120848618715,0.00500027517065932,0,0,1,0
20649,1,1.09257363573887,0.9,1.1,0.279435960789336,0.0333064290700021,0,0,1,0
20650,1,1.09164722734322,0.9,1.1,0.0608247538086211,0.00414593234911026,0,0,1,0
20651,1,1.10414534737314,0.9,1.1,5.5483902890204,0.170927723818245,0,0.00414534737313965,1,0
20652,1,1.091731373601,0.9,1.1,0.0530765948016025,0.00681081952516385,0,0,1,0
20653,1,1.06268533610334,0.9,1.1,0.0313331271033466,0.00203021192585456,0,0,1,0
20654,1,0.988932769352866,0.9,1.1,0.10827829814207,0.00625081856149914,0,0,1,0
20655,1,1.05243078812165,0.9,1.1,0.120844638101786,0.0168981241357707,0,0,1,0
20659,1,1.08919018850217,0.9,1.1,0.20581881218931,0.0101535884291085,0,0,1,0
20660,1,1.08934819926955,0.9,1.1,0.252383528803755,0.0967957940802726,0,0,1,0
20661,1,1.09165203848033,0.9,1.1,0.121206197080518,0.00862217754855447,0,0,1,0
20662,1,1.09165998767581,0.9,1.1,0.121652814556615,0.00866166477220681,0,0,1,0
20663,1,1.06276945976275,0.9,1.1,0.0880862252591186,0.00936368031441911,0,0,1,0
20666,1,1.08982178479025,0.9,1.1,0.121543691236631,0.0144270465104047,0,0,1,0
20667,1,1.05570301743336,0.9,1.1,0.0945690866732392,0.00705817433342866,0,0,1,0
20670,1,1.09140982880881,0.9,1.1,0.0303833169593108,0.00201731123741266,0,0,1,0
20671,1,1.09075163194395,0.9,1.1,0.0549315222335407,0.00701065805117761,0,0,1,0
20731,1,1.00712516465471,0.9,1.1,0.216707169689414,-0.000364550744615111,0,0,1,0
20732,1,1.0072207894211,0.9,1.1,0.236702545424695,0.0154930609573958,0,0,1,0
20733,1,1.0072094958225,0.9,1.1,0.226297031648347,-0.131503246958198,0,0,1,0
20734,1,1.0070943334886,0.9,1.1,0.216632734588885,-0.000870174585840267,0,0,1,0
20735,2,1.00703929480097,0.9,1.1,-0.00213360141110996,-0.179554947903657,0,0,1,0
20736,1,1.00717603768624,0.9,1.1,0.506935954032926,-0.120458645612948,0,0,1,0
20737,2,1.02863613654815,0.9,1.1,0.0661764754448626,-0.163242138276605,0,0,1,0
20738,2,1.04292398548971,0.9,1.1,0.157245334601575,0.0167536954057983,0,0,1,0
20739,1,1.0399490270126,0.9,1.1,0.307164310340053,0.0673256715671117,0,0,1,0
20740,1,1.05239649966855,0.9,1.1,0.295157658879464,0.100844109558643,0,0,1,0
20741,1,1.04048064330282,0.9,1.1,0.0957800481118358,0.00498491110810205,0,0,1,0
20752,1,0.92149642101314,0.9,1.1,0.439446493337357,-0.0156727534052915,0,0,1,0
20753,1,1.0315154002326,0.9,1.1,0.120683058004133,-0.000328026558905903,0,0,1,0
20754,1,0.928265397603017,0.9,1.1,0.392183852096061,-0.0223974358624038,0,0,1,0
20755,1,1.10765779641013,0.9,1.1,0.202180041901791,-0.00154429562063917,0,0.00765779641013409,1,0
20756,1,1.10512620489344,0.9,1.1,0.0343457523909372,0.0190214384956097,0,0.00512620489343774,1,0
20757,1,1.10726725838511,0.9,1.1,0.44746690806317,0.0742635768940487,0,0.00726725838510767,1,0
20758,1,1.09785576994492,0.9,1.1,0.0627686724429406,0.00339847334988593,0,0,1,0
20759,2,0.890522663018576,0.9,1.1,0.923385015985929,1.7208857931133,0.00947733698142361,0,1,0
20760,1,0.890531411733486,0.9,1.1,0.0432631430249112,0.0849869997885093,0.00946858826651364,0,1,0
20761,2,0.890522662931492,0.9,1.1,0.203230974453863,0.419799692410141,0.00947733706850773,0,1,0
20762,1,0.890541106654867,0.9,1.1,-0.0585831065329498,0.0820290330321441,0.0094588933451335,0,1,0
20763,1,0.890658844254643,0.9,1.1,-0.138037163810592,0.138591277470744,0.00934115574535743,0,1,0
20764,1,0.890570286061185,0.9,1.1,-0.0120469110314738,-0.000832094039427631,0.00942971393881498,0,1,0
20765,1,0.890527592251458,0.9,1.1,-0.00198640918314677,0.00301174522416723,0.00947240774854186,0,1,0
20766,1,0.890532309779049,0.9,1.1,0.00958922272990935,-0.00596876991963097,0.0094676902209514,0,1,0
20767,1,1.05238528015028,0.9,1.1,0.0618957397213027,0.00458367612359498,0,0,1,0
20769,1,0.983665776735322,0.9,1.1,0.026702029099392,-0.00127917304056056,0,0,1,0
20770,1,1.04909475675052,0.9,1.1,0.0616444421936357,0.00422590956958707,0,0,1,0
20771,1,1.08101210725166,0.9,1.1,0.187405380069524,0.0565446523998051,0,0,1,0
20772,1,1.09927223151924,0.9,1.1,0.78410352653937,0.12108286729888,0,0,1,0
20773,1,1.10737330833235,0.9,1.1,-1.11934637322338,-0.296961769019497,0,0.00737330833234706,1,0
20774,1,1.10682944255336,0.9,1.1,0.0662594060958665,0.350897402938919,0,0.00682944255335616,1,0
20781,1,1.09494013055861,0.9,1.1,0.474878368043932,0.0629968925925053,0,0,1,0
20782,1,1.05671246697574,0.9,1.1,0.133376496230564,-0.00489796549232452,0,0,1,0
20817,2,1.10947733313586,0.9,1.1,-4.09829526747399,-1.49020366294377,0,0.00947733313586463,1,0
20818,1,1.10850267553963,0.9,1.1,0.427137900404146,0.0900735800303261,0,0.00850267553963246,1,0
20819,1,0.979167549545931,0.9,1.1,0.0377226869221348,0.000654408721419749,0,0,1,0
20820,1,0.997835596747473,0.9,1.1,0.0700654634442159,0.00121919370456632,0,0,1,0
20821,2,0.981924591448587,0.9,1.1,-0.106508772502583,-0.15098663009465,0,0,1,0
20822,1,0.979185087793961,0.9,1.1,0.11324014444372,0.00140907299106333,0,0,1,0
20828,2,1.00661030479199,0.9,1.1,-0.111272291128849,-0.145949800539064,0,0,1,0
20829,1,1.04983933221544,0.9,1.1,0.189980026053089,0.0114271995350745,0,0,1,0
20830,1,1.04982790868546,0.9,1.1,0.159680599751869,0.0126729723029552,0,0,1,0
20831,1,1.07495770749206,0.9,1.1,0.388789027990747,-0.0398466007840326,0,0,1,0
20832,1,1.07479116014946,0.9,1.1,0.366739217518941,0.00557775972381547,0,0,1,0
20833,1,1.05079491790563,0.9,1.1,0.152409730703884,0.0288878034897112,0,0,1,0
20834,1,1.04984200706258,0.9,1.1,0.116479928978398,0.0119960550998062,0,0,1,0
20835,1,1.05015222631547,0.9,1.1,0.198582169220817,0.0168858579039949,0,0,1,0
20836,1,1.04898695023453,0.9,1.1,0.128440585699591,0.00766171500985388,0,0,1,0
20837,1,1.06171206999528,0.9,1.1,0.170215550313596,0.0104932108982186,0,0,1,0
20838,1,1.06438479637987,0.9,1.1,0.113823091765408,0.00853134186931809,0,0,1,0
20839,1,1.06557033711214,0.9,1.1,0.116521064517588,0.012672755003032,0,0,1,0
20840,1,1.07358896779035,0.9,1.1,0.213992038745086,-0.0218882197198705,0,0,1,0
20841,1,1.05084254295842,0.9,1.1,0.108205754854582,0.0149109705329567,0,0,1,0
20842,1,1.08099226060852,0.9,1.1,1.12289222995702,0.266627648911894,0,0,1,0
20843,1,1.05860404877369,0.9,1.1,0.279325768944283,0.0251323718920018,0,0,1,0
20844,1,1.07466275966858,0.9,1.1,0.311572759355137,0.1134560350408,0,0,1,0
20845,1,1.05624609335427,0.9,1.1,0.300887012560921,0.0383763911997514,0,0,1,0
20846,1,1.05910709295669,0.9,1.1,0.254412906897613,0.0196520565396388,0,0,1,0
20847,3,1.10947732263008,0.9,1.1,-4.4390606466884,-1.77321825475886,0,0.00947732263008394,1,0
20848,1,1.10923235545131,0.9,1.1,0.0166641001427294,0.366621934469993,0,0.00923235545130874,1,0
20849,1,1.09282054918444,0.9,1.1,0.132020856912458,0.00813363927871166,0,0,1,0
20850,1,1.09285104219953,0.9,1.1,0.136171381548518,0.00272136150441943,0,0,1,0
20851,1,1.09843590659191,0.9,1.1,0.0941409736436984,0.0523582452722181,0,0,1,0
20852,1,1.09697362351861,0.9,1.1,0.132857919236379,0.00662141623042831,0,0,1,0
20853,1,1.09710052873556,0.9,1.1,0.132733873542506,0.00531031273339408,0,0,1,0
20854,1,1.09774877318854,0.9,1.1,0.132423051868379,0.00501416141634806,0,0,1,0
20855,1,1.0917936643055,0.9,1.1,0.0519198799731697,0.00415646773255455,0,0,1,0
20856,1,1.0920410688624,0.9,1.1,0.0933287755514201,0.00514868760856171,0,0,1,0
20857,1,1.09494831986821,0.9,1.1,0.134404163470087,0.0228239199990481,0,0,1,0
20858,1,1.10326227817835,0.9,1.1,-0.0284032602916059,-0.0697437927480809,0,0.00326227817834557,1,0
20859,1,1.09839713947597,0.9,1.1,0.132150098601457,0.00504849006754543,0,0,1,0
20860,1,1.09748598093844,0.9,1.1,0.183551143119658,0.0268184527265833,0,0,1,0
20861,1,1.09605488829273,0.9,1.1,0.103461088491233,-0.0703809139685457,0,0,1,0
20862,1,1.09433534897087,0.9,1.1,0.136128859741238,0.0173356596295568,0,0,1,0
20897,1,1.09992100318601,0.9,1.1,-0.012584497131102,0.0848367784122258,0,0,1,0
20898,1,1.09912035573577,0.9,1.1,-0.0508374996932059,-0.032844497506019,0,0,1,0
20899,2,1.10947733179585,0.9,1.1,2.01594770878489,-1.96760084105691,0,0.0094773317958452,1,0
20900,1,1.10116057211472,0.9,1.1,0.110649228801427,0.874599001169592,0,0.00116057211472165,1,0
20901,1,1.0843169143264,0.9,1.1,0.20069965082196,0.0216732770218234,0,0,1,0
20902,1,1.10143141737006,0.9,1.1,-0.120957509578684,0.0748226895044788,0,0.00143141737006203,1,0
20903,1,1.08361082443714,0.9,1.1,1.37997799128925,0.0988342741146231,0,0,1,0
20904,1,1.07833988512048,0.9,1.1,1.05020628331965,0.0418090265879911,0,0,1,0
20905,1,1.07842566353237,0.9,1.1,0.700232060714171,0.0330211417492399,0,0,1,0
20906,1,1.08643728761648,0.9,1.1,0.134077368733244,0.022327016993591,0,0,1,0
20988,1,0.910613782415315,0.9,1.1,0.223432676205649,-0.014450708553429,0,0,1,0
20989,1,0.908156864538143,0.9,1.1,0.225612164827263,-0.0129943281069991,0,0,1,0
20993,1,0.895158989859955,0.9,1.1,0.648227492561958,0.0946263646284967,0.00484101014004523,0,1,0
20994,2,1.06188801984443,0.9,1.1,0.247489880044725,-0.908496129853717,0,0,1,0
20995,1,1.06314149257024,0.9,1.1,0.309164236954196,0.0477864079716894,0,0,1,0
20996,1,1.06321756038745,0.9,1.1,0.254768162096582,0.100732474280549,0,0,1,0
20997,1,1.05350330197516,0.9,1.1,0.367601133612908,0.0535273561999343,0,0,1,0
20998,1,1.05424735190502,0.9,1.1,0.119858238496096,0.0361943155824884,0,0,1,0
20999,1,1.06319437528351,0.9,1.1,0.0167151681304212,-0.133068284136503,0,0,1,0
21129,2,1.08412405212193,0.9,1.1,5.47379534694983,-0.545230642083567,0,0,1,0
21130,2,1.08331551680506,0.9,1.1,-3.73890959037398,1.32371994991341,0,0,1,0
21131,2,1.08613776382103,0.9,1.1,0.23473247843296,0.263556722809511,0,0,1,0
21132,1,1.08441487245728,0.9,1.1,-1.65750387195649,-1.04263137423754,0,0,1,0
21133,2,1.0863776295673,0.9,1.1,0.918475065988787,-4.08384968561904,0,0,1,0
21134,1,1.08443133023149,0.9,1.1,0.0667018714231715,0.760398759284199,0,0,1,0
21135,2,1.0848326135013,0.9,1.1,1.09640572819979,0.469200291697797,0,0,1,0
21136,1,1.08465036826563,0.9,1.1,-0.961239381534725,-1.32249331298777,0,0,1,0
21137,1,1.07632902035374,0.9,1.1,0.378124003870177,-0.0380921054257022,0,0,1,0
21138,1,1.09840866895019,0.9,1.1,0.192183948616059,-0.113359715399573,0,0,1,0
21139,1,1.07456375331172,0.9,1.1,0.419668556009732,-0.0316976002058461,0,0,1,0
21140,1,1.07456984093576,0.9,1.1,0.244993690431166,0.0270953532334958,0,0,1,0
21141,1,1.07005769375002,0.9,1.1,0.368414008904693,-0.0357564623151368,0,0,1,0
21142,1,1.06863995220654,0.9,1.1,0.180527196638558,0.013493533513205,0,0,1,0
21143,1,1.07468451159529,0.9,1.1,0.627657403173046,-0.0793091244651295,0,0,1,0
21144,1,1.07509333126062,0.9,1.1,0.416180790881135,0.0403686302880235,0,0,1,0
21145,1,1.06435464147095,0.9,1.1,0.0557446067280161,0.00306118242664154,0,0,1,0
21146,2,1.06439220971215,0.9,1.1,-0.359701027238902,-0.0358553074993164,0,0,1,0
21147,2,1.07788210884702,0.9,1.1,-0.123331546699006,-0.783726474410201,0,0,1,0
21148,1,1.07890255845096,0.9,1.1,-1.41625330686648,-3.2898388976829,0,0,1,0
21149,1,1.07633776459891,0.9,1.1,0.270459548042027,0.0113463189187618,0,0,1,0
21150,1,1.09076497085757,0.9,1.1,0.307038798801479,0.0181508515706655,0,0,1,0
21151,1,1.07616847282638,0.9,1.1,0.130649969353419,0.0016955012063162,0,0,1,0
21152,1,1.09839737233344,0.9,1.1,0.0624127078161791,0.00130273810637557,0,0,1,0
21153,1,1.06834394616947,0.9,1.1,0.1127919693298,0.00566122625549892,0,0,1,0
21154,1,1.07456375501703,0.9,1.1,0.1202829233196,-5.4336772235819e-05,0,0,1,0
21155,1,1.07408885337188,0.9,1.1,0.219547648682848,0.0151757480047726,0,0,1,0
21156,1,1.06800182518091,0.9,1.1,0.224414880484915,0.0111584737993956,0,0,1,0
21157,1,1.0747885391779,0.9,1.1,0.397559639119756,0.0289524851077444,0,0,1,0
21158,1,1.06595438811135,0.9,1.1,0.166768286904116,0.012601423380415,0,0,1,0
21159,1,1.06342588589639,0.9,1.1,0.108665784889931,0.00817594545691538,0,0,1,0
21160,1,1.07531156034198,0.9,1.1,2.38184645387284,-1.42008465131359,0,0,1,0
21161,1,1.07064423532272,0.9,1.1,0.0665448915552034,-0.107249331858306,0,0,1,0
21162,1,1.06882039981632,0.9,1.1,0.114476082273871,0.00890181603871235,0,0,1,0
21163,1,1.05653479332926,0.9,1.1,0.134487336322929,0.0183752018286854,0,0,1,0
21164,2,1.07188642321936,0.9,1.1,0.342760843114931,-0.062098254881878,0,0,1,0
21165,1,1.07786646378788,0.9,1.1,0.724159081182464,-0.0575831961469098,0,0,1,0
21166,1,1.07473390863921,0.9,1.1,1.13943535526559,0.343328948585669,0,0,1,0
21167,1,1.09088907155227,0.9,1.1,0.058222366462287,0.00220134075792702,0,0,1,0
21168,1,1.09165362115887,0.9,1.1,0.176284026145876,0.00648597344596047,0,0,1,0
21169,2,1.07176458509272,0.9,1.1,-0.0142465585090115,-0.121607237739701,0,0,1,0
21170,2,1.07290062683756,0.9,1.1,-0.0567969925781071,-0.0423650170315231,0,0,1,0
21210,1,1.01243249984591,0.9,1.1,0.152827707085958,0.00604521279151411,0,0,1,0
21211,1,0.919065593063926,0.9,1.1,0.433501506310929,-0.0240763099322184,0,0,1,0
21212,1,0.919074978091371,0.9,1.1,0.396960212572232,-0.0116152456005492,0,0,1,0
21224,1,1.01784988897662,0.9,1.1,0.100456999989177,-0.00413264460729906,0,0,1,0
21225,1,1.03610883772599,0.9,1.1,0.0936779251619733,-0.00590302316270663,0,0,1,0
21226,1,1.03369048191597,0.9,1.1,0.0682263565375898,0.00233019393530501,0,0,1,0
21356,1,1.10233725953382,0.9,1.1,0.0654960023051201,0.222041007403258,0,0.00233725953381669,1,0
21360,1,1.08883638036306,0.9,1.1,0.138824125170913,0.00140717289438264,0,0,1,0
21401,1,1.09676858689298,0.9,1.1,0.320265683901638,0.0392875579569366,0,0,1,0
21419,1,1.0063614637309,0.9,1.1,0.114315434356266,0.00437636548410733,0,0,1,0
21423,1,1.00634804909003,0.9,1.1,0.0359787675195333,0.000970075580991473,0,0,1,0
21456,1,1.08478537589161,0.9,1.1,3.46737690741156,0.601370736617435,0,0,1,0
21457,2,1.0847949292331,0.9,1.1,-1.77991165368007,-2.51909011558979,0,0,1,0
21467,1,1.05629884208783,0.9,1.1,-0.0507960991695739,0.069790541763956,0,0,1,0
21468,1,1.08162433205059,0.9,1.1,2.20018354156974,0.391876247278677,0,0,1,0
21481,1,0.934443230877152,0.9,1.1,-0.12039691889773,0.013154804647095,0,0,1,0
21482,1,1.02556884203448,0.9,1.1,0.0283324092839194,-0.00552170873273188,0,0,1,0
21483,1,0.955586343554012,0.9,1.1,-0.0281943328901297,0.0197403818152584,0,0,1,0
21484,1,1.00028206762774,0.9,1.1,-0.0588693582622284,-0.101033488648356,0,0,1,0
21485,1,1.07784144325814,0.9,1.1,0.0226959087674756,-0.0449008580814969,0,0,1,0
21486,1,1.10294145545419,0.9,1.1,0.0407058097730815,0.000199392400803723,0,0.00294145545419,1,0
21487,1,1.09210927107446,0.9,1.1,0.508180651905889,0.238914528712546,0,0,1,0
21488,1,1.09555333603431,0.9,1.1,0.082397734816162,0.00351973434651906,0,0,1,0
21489,1,1.07085237227469,0.9,1.1,0.283645437445884,0.340468626362128,0,0,1,0
21490,1,1.07027558134442,0.9,1.1,0.196514603075549,-0.00801459139556648,0,0,1,0
21491,1,1.0685943092992,0.9,1.1,0.0842193576476671,-0.00147877579054212,0,0,1,0
21492,1,1.108580860379,0.9,1.1,0.569174337813159,0.0943141148616156,0,0.00858086037899519,1,0
21493,1,1.08400106815027,0.9,1.1,7.57909209301783,0.895666379855387,0,0,1,0
21494,1,1.07992882323839,0.9,1.1,-0.49823453215128,-0.404348135964668,0,0,1,0
21495,1,1.07517361382779,0.9,1.1,-0.237934820560618,0.100462667371037,0,0,1,0
21496,1,1.09036799782066,0.9,1.1,0.903122543907358,0.290482349941446,0,0,1,0
21497,1,1.10147607971304,0.9,1.1,-0.151210160272779,-0.223183553735769,0,0.00147607971304464,1,0
21498,1,1.08618514705058,0.9,1.1,-0.154381030844441,0.0595356454874532,0,0,1,0
21499,1,1.10726799934343,0.9,1.1,0.0504490674348753,0.0176309819640544,0,0.00726799934342881,1,0
21500,1,1.09477156311917,0.9,1.1,0.940091711286783,-0.0228524188011781,0,0,1,0
21501,1,1.08185468058183,0.9,1.1,3.89436055787507,0.579182624902241,0,0,1,0
21502,1,1.07992964750673,0.9,1.1,4.33132855509689,0.72939916097603,0,0,1,0
21503,1,1.06318745300125,0.9,1.1,0.803917050921669,-0.0153093306544172,0,0,1,0
21504,1,1.07101581712011,0.9,1.1,0.260065345566581,0.00111563528676084,0,0,1,0
21505,1,1.06269648326084,0.9,1.1,0.106582604644899,-0.0356945382839112,0,0,1,0
21506,1,1.04245393927487,0.9,1.1,1.5911881922585,0.0935956697624363,0,0,1,0
21509,1,1.08790201992656,0.9,1.1,-0.0382057174873047,-0.0135560174461216,0,0,1,0
21510,1,1.09960391008744,0.9,1.1,0.147625689609534,0.0257776361786501,0,0,1,0
21511,1,1.07061832486223,0.9,1.1,-0.0342672430503441,-0.0112886183631734,0,0,1,0
21512,1,1.09247031048969,0.9,1.1,0.0918811637671624,-0.014463116054899,0,0,1,0
21514,1,1.10519231588349,0.9,1.1,0.236595425636867,0.0739526310112143,0,0.00519231588348612,1,0
21516,1,1.05643268346148,0.9,1.1,0.0786803309329898,-0.0260663620982798,0,0,1,0
21517,1,1.09505572875173,0.9,1.1,0.143692962267906,-0.0106295155041021,0,0,1,0
21518,1,1.10776883763327,0.9,1.1,0.136689348588504,0.0969695393487752,0,0.00776883763326564,1,0
21519,1,1.10465756897974,0.9,1.1,0.0867496793356894,0.508125129491348,0,0.00465756897974012,1,0
21522,1,1.06514195189268,0.9,1.1,0.135292550634329,-0.0438585321523299,0,0,1,0
21523,1,1.0744012188433,0.9,1.1,0.331161111098435,-0.153758856326812,0,0,1,0
21524,1,1.0997042378372,0.9,1.1,0.10972526957358,0.00257249969667778,0,0,1,0
21525,1,1.10233621546799,0.9,1.1,0.583410201697376,0.0209503028354097,0,0.00233621546798557,1,0
21526,1,1.09747854663125,0.9,1.1,0.375218076131596,-0.0111936754733366,0,0,1,0
21527,1,0.912267616252684,0.9,1.1,1.59206731613243,0.150046723148048,0,0,1,0
21528,1,1.08098286037302,0.9,1.1,-1.24123010718441,1.92568339546674,0,0,1,0
21529,1,1.0858896605972,0.9,1.1,7.03507461682864,0.725537547233701,0,0,1,0
21530,1,1.0861159624503,0.9,1.1,2.85729840592967,0.668754585205389,0,0,1,0
21531,1,1.0992492901174,0.9,1.1,-0.157984580825554,0.968327864527119,0,0,1,0
21532,1,1.08476307285817,0.9,1.1,3.97471536500859,0.802897078261422,0,0,1,0
21533,1,1.0741154634204,0.9,1.1,0.0808413906811936,-0.0091665334495783,0,0,1,0
21534,1,1.07411391415644,0.9,1.1,0.0808976624547775,-0.00911036020734002,0,0,1,0
21535,1,1.07754157656696,0.9,1.1,0.0852391278199374,-0.00850218995744889,0,0,1,0
21536,1,1.0723155915474,0.9,1.1,0.115430694664299,-0.0496260389652878,0,0,1,0
21537,1,1.07101382192656,0.9,1.1,0.0396296554302875,-0.0254816221689581,0,0,1,0
21538,1,1.06072300410802,0.9,1.1,2.1144873230719,1.53674119836153,0,0,1,0
21539,1,1.09452303024711,0.9,1.1,0.279574106575993,-0.489519922906378,0,0,1,0
21540,1,1.056590991435,0.9,1.1,0.0819779016776021,0.0544210410507288,0,0,1,0
21541,1,1.0682424690781,0.9,1.1,0.0368102468161347,-0.0581251000523246,0,0,1,0
21542,1,1.08645360697308,0.9,1.1,0.0881133629901267,-0.00207423323494021,0,0,1,0
21544,1,0.986431859457156,0.9,1.1,-0.085595493228785,0.0158511969452888,0,0,1,0
21574,1,1.1072410573339,0.9,1.1,0.112094645951833,0.0863628256931866,0,0.00724105733390457,1,0
